ra-optimisation/time-coupled-rao/src/test/resources/network/US2-3-case4-networkDiverge.uct
##C 2007.05.01
Test case for optimization of range and network actions
##N
##ZFR
FFR1AA1  FR1          0 2 400.00 0.00000 0.00000 00000.0 0.00000
FFR2AA1  FR2          0 2 400.00 4000.00 0.00000 0.00000.0.00000
FFR3AA1  FR3          0 2 400.00 4000.00 0.00000 0.00000 0.00000
FFR4AA1  FR4          0 2 400.00 0.00000 0.00000 0.00000 0.00000
##L
FFR1AA1  FFR4AA1  1 0 0.0000 10.000 0.00000   5000
##T
FFR4AA1  FFR3AA1  1 0 400.0 400.0 1000. 0.0000 10.000 0.000000 0.0	     5000 PST
##R
FFR4AA1  FFR3AA1  1                    -0.68 90.00 16 0         SYMM

